<?xml version="1.0" encoding="UTF-8"?>

<!-- generated on 2025-07-14 15:42:08 by Eclipse SUMO netconvert Version 1.23.1
<netconvertConfiguration xmlns:xsi="http://www.w3.org/2001/XMLSchema-instance" xsi:noNamespaceSchemaLocation="http://sumo.dlr.de/xsd/netconvertConfiguration.xsd">

    <input>
        <node-files value="nodes.nod.xml"/>
        <edge-files value="edges.edg.xml"/>
        <type-files value="types.typ.xml"/>
    </input>

    <output>
        <output-file value="map.net.xml"/>
    </output>

</netconvertConfiguration>
-->

<net version="1.20" junctionCornerDetail="5" limitTurnSpeed="5.50" xmlns:xsi="http://www.w3.org/2001/XMLSchema-instance" xsi:noNamespaceSchemaLocation="http://sumo.dlr.de/xsd/net_file.xsd">

    <location netOffset="0.00,300.00" convBoundary="0.00,0.00,1000.00,600.00" origBoundary="0.00,-300.00,1000.00,300.00" projParameter="!"/>

    <type id="highway" numLanes="2" speed="13.90"/>
    <type id="side" numLanes="1" speed="8.33"/>

    <edge id=":n1_0" function="internal">
        <lane id=":n1_0_0" index="0" speed="6.51" length="9.03" shape="501.60,289.60 501.95,292.05 503.00,293.80 504.75,294.85 507.20,295.20"/>
    </edge>
    <edge id=":n1_1" function="internal">
        <lane id=":n1_1_0" index="0" speed="8.33" length="14.40" shape="501.60,289.60 501.60,304.00"/>
    </edge>
    <edge id=":n1_2" function="internal">
        <lane id=":n1_2_0" index="0" speed="13.90" length="11.20" shape="496.00,295.20 507.20,295.20"/>
        <lane id=":n1_2_1" index="1" speed="13.90" length="11.20" shape="496.00,298.40 507.20,298.40"/>
    </edge>
    <edge id=":n1_4" function="internal">
        <lane id=":n1_4_0" index="0" speed="6.51" length="9.03" shape="496.00,298.40 498.45,298.75 500.20,299.80 501.25,301.55 501.60,304.00"/>
    </edge>

    <edge id="h0" from="n0" to="n1" priority="-1" type="highway">
        <lane id="h0_0" index="0" speed="13.90" length="496.00" shape="0.00,295.20 496.00,295.20"/>
        <lane id="h0_1" index="1" speed="13.90" length="496.00" shape="0.00,298.40 496.00,298.40"/>
    </edge>
    <edge id="h1" from="n1" to="n2" priority="-1" type="highway">
        <lane id="h1_0" index="0" speed="13.90" length="492.80" shape="507.20,295.20 1000.00,295.20"/>
        <lane id="h1_1" index="1" speed="13.90" length="492.80" shape="507.20,298.40 1000.00,298.40"/>
    </edge>
    <edge id="s0" from="n3" to="n1" priority="-1" type="side">
        <lane id="s0_0" index="0" speed="8.33" length="289.60" shape="501.60,0.00 501.60,289.60"/>
    </edge>
    <edge id="s1" from="n1" to="n4" priority="-1" type="side">
        <lane id="s1_0" index="0" speed="8.33" length="296.00" shape="501.60,304.00 501.60,600.00"/>
    </edge>

    <tlLogic id="n1" type="static" programID="0" offset="0">
        <phase duration="42" state="GGrrr"/>
        <phase duration="3"  state="yyrrr"/>
        <phase duration="42" state="rrGGG"/>
        <phase duration="3"  state="rryyy"/>
    </tlLogic>

    <junction id="n0" type="dead_end" x="0.00" y="300.00" incLanes="" intLanes="" shape="0.00,300.00 0.00,293.60"/>
    <junction id="n1" type="traffic_light" x="500.00" y="300.00" incLanes="s0_0 h0_0 h0_1" intLanes=":n1_0_0 :n1_1_0 :n1_2_0 :n1_2_1 :n1_4_0" shape="500.00,304.00 503.20,304.00 503.64,301.78 504.20,301.00 504.98,300.44 505.98,300.11 507.20,300.00 507.20,293.60 504.98,293.16 504.20,292.60 503.64,291.82 503.31,290.82 503.20,289.60 500.00,289.60 499.56,291.82 499.00,292.60 498.22,293.16 497.22,293.49 496.00,293.60 496.00,300.00 498.22,300.44 499.00,301.00 499.56,301.78 499.89,302.78">
        <request index="0" response="01100" foes="01100" cont="0"/>
        <request index="1" response="11100" foes="11100" cont="0"/>
        <request index="2" response="00000" foes="00011" cont="0"/>
        <request index="3" response="00000" foes="00011" cont="0"/>
        <request index="4" response="00000" foes="00010" cont="0"/>
    </junction>
    <junction id="n2" type="dead_end" x="1000.00" y="300.00" incLanes="h1_0 h1_1" intLanes="" shape="1000.00,293.60 1000.00,300.00"/>
    <junction id="n3" type="dead_end" x="500.00" y="0.00" incLanes="" intLanes="" shape="500.00,0.00 503.20,0.00"/>
    <junction id="n4" type="dead_end" x="500.00" y="600.00" incLanes="s1_0" intLanes="" shape="503.20,600.00 500.00,600.00"/>

    <connection from="h0" to="h1" fromLane="0" toLane="0" via=":n1_2_0" tl="n1" linkIndex="2" dir="s" state="O"/>
    <connection from="h0" to="h1" fromLane="1" toLane="1" via=":n1_2_1" tl="n1" linkIndex="3" dir="s" state="O"/>
    <connection from="h0" to="s1" fromLane="1" toLane="0" via=":n1_4_0" tl="n1" linkIndex="4" dir="l" state="O"/>
    <connection from="s0" to="h1" fromLane="0" toLane="0" via=":n1_0_0" tl="n1" linkIndex="0" dir="r" state="o"/>
    <connection from="s0" to="s1" fromLane="0" toLane="0" via=":n1_1_0" tl="n1" linkIndex="1" dir="s" state="o"/>

    <connection from=":n1_0" to="h1" fromLane="0" toLane="0" dir="r" state="M"/>
    <connection from=":n1_1" to="s1" fromLane="0" toLane="0" dir="s" state="M"/>
    <connection from=":n1_2" to="h1" fromLane="0" toLane="0" dir="s" state="M"/>
    <connection from=":n1_2" to="h1" fromLane="1" toLane="1" dir="s" state="M"/>
    <connection from=":n1_4" to="s1" fromLane="0" toLane="0" dir="l" state="M"/>

</net>
