<?xml version="1.0" encoding="UTF-8"?>

<!-- generated on 2025-07-14 16:07:35.107667 by randomTrips.py v1_23_1+0000-676720d13f6
<configuration>
    <net-file value="map.net.xml"/>
    <output-trip-file value="routes.rou.xml"/>
    <prefix value="veh_"/>
    <period value="1.0"/>
</configuration>
-->

<routes xmlns:xsi="http://www.w3.org/2001/XMLSchema-instance" xsi:noNamespaceSchemaLocation="http://sumo.dlr.de/xsd/routes_file.xsd">
    <trip id="veh_0" depart="0.00" from="s0" to="h1"/>
    <trip id="veh_1" depart="1.00" from="h0" to="h1"/>
    <trip id="veh_2" depart="2.00" from="s0" to="s1"/>
    <trip id="veh_3" depart="3.00" from="s0" to="h1"/>
    <trip id="veh_4" depart="4.00" from="h0" to="h1"/>
    <trip id="veh_5" depart="5.00" from="h0" to="s1"/>
    <trip id="veh_6" depart="6.00" from="h0" to="h1"/>
    <trip id="veh_7" depart="7.00" from="s0" to="s1"/>
    <trip id="veh_8" depart="8.00" from="h0" to="s1"/>
    <trip id="veh_9" depart="9.00" from="s0" to="h1"/>
    <trip id="veh_10" depart="10.00" from="s0" to="s1"/>
    <trip id="veh_11" depart="11.00" from="h0" to="h1"/>
    <trip id="veh_12" depart="12.00" from="s0" to="h1"/>
    <trip id="veh_13" depart="13.00" from="h0" to="h1"/>
    <trip id="veh_14" depart="14.00" from="s0" to="s1"/>
    <trip id="veh_15" depart="15.00" from="s0" to="s1"/>
    <trip id="veh_16" depart="16.00" from="s0" to="s1"/>
    <trip id="veh_17" depart="17.00" from="h0" to="s1"/>
    <trip id="veh_18" depart="18.00" from="s0" to="s1"/>
    <trip id="veh_19" depart="19.00" from="s0" to="s1"/>
    <trip id="veh_20" depart="20.00" from="s0" to="h1"/>
    <trip id="veh_21" depart="21.00" from="h0" to="h1"/>
    <trip id="veh_22" depart="22.00" from="h0" to="h1"/>
    <trip id="veh_23" depart="23.00" from="h0" to="h1"/>
    <trip id="veh_24" depart="24.00" from="s0" to="h1"/>
    <trip id="veh_25" depart="25.00" from="h0" to="h1"/>
    <trip id="veh_26" depart="26.00" from="h0" to="s1"/>
    <trip id="veh_27" depart="27.00" from="s0" to="s1"/>
    <trip id="veh_28" depart="28.00" from="h0" to="s1"/>
    <trip id="veh_29" depart="29.00" from="h0" to="h1"/>
    <trip id="veh_30" depart="30.00" from="s0" to="s1"/>
    <trip id="veh_31" depart="31.00" from="s0" to="s1"/>
    <trip id="veh_32" depart="32.00" from="s0" to="s1"/>
    <trip id="veh_33" depart="33.00" from="h0" to="h1"/>
    <trip id="veh_34" depart="34.00" from="h0" to="h1"/>
    <trip id="veh_35" depart="35.00" from="h0" to="s1"/>
    <trip id="veh_36" depart="36.00" from="s0" to="h1"/>
    <trip id="veh_37" depart="37.00" from="s0" to="h1"/>
    <trip id="veh_38" depart="38.00" from="s0" to="h1"/>
    <trip id="veh_39" depart="39.00" from="h0" to="h1"/>
    <trip id="veh_40" depart="40.00" from="s0" to="h1"/>
    <trip id="veh_41" depart="41.00" from="s0" to="s1"/>
    <trip id="veh_42" depart="42.00" from="h0" to="h1"/>
    <trip id="veh_43" depart="43.00" from="s0" to="s1"/>
    <trip id="veh_44" depart="44.00" from="h0" to="h1"/>
    <trip id="veh_45" depart="45.00" from="h0" to="s1"/>
    <trip id="veh_46" depart="46.00" from="s0" to="h1"/>
    <trip id="veh_47" depart="47.00" from="h0" to="h1"/>
    <trip id="veh_48" depart="48.00" from="s0" to="s1"/>
    <trip id="veh_49" depart="49.00" from="s0" to="s1"/>
    <trip id="veh_50" depart="50.00" from="h0" to="s1"/>
    <trip id="veh_51" depart="51.00" from="s0" to="s1"/>
    <trip id="veh_52" depart="52.00" from="h0" to="s1"/>
    <trip id="veh_53" depart="53.00" from="h0" to="h1"/>
    <trip id="veh_54" depart="54.00" from="h0" to="s1"/>
    <trip id="veh_55" depart="55.00" from="s0" to="h1"/>
    <trip id="veh_56" depart="56.00" from="s0" to="h1"/>
    <trip id="veh_57" depart="57.00" from="s0" to="s1"/>
    <trip id="veh_58" depart="58.00" from="h0" to="s1"/>
    <trip id="veh_59" depart="59.00" from="s0" to="h1"/>
    <trip id="veh_60" depart="60.00" from="s0" to="s1"/>
    <trip id="veh_61" depart="61.00" from="s0" to="s1"/>
    <trip id="veh_62" depart="62.00" from="h0" to="h1"/>
    <trip id="veh_63" depart="63.00" from="h0" to="s1"/>
    <trip id="veh_64" depart="64.00" from="s0" to="s1"/>
    <trip id="veh_65" depart="65.00" from="h0" to="h1"/>
    <trip id="veh_66" depart="66.00" from="s0" to="s1"/>
    <trip id="veh_67" depart="67.00" from="h0" to="h1"/>
    <trip id="veh_68" depart="68.00" from="h0" to="s1"/>
    <trip id="veh_69" depart="69.00" from="s0" to="h1"/>
    <trip id="veh_70" depart="70.00" from="h0" to="s1"/>
    <trip id="veh_71" depart="71.00" from="h0" to="s1"/>
    <trip id="veh_72" depart="72.00" from="h0" to="h1"/>
    <trip id="veh_73" depart="73.00" from="s0" to="s1"/>
    <trip id="veh_74" depart="74.00" from="h0" to="h1"/>
    <trip id="veh_75" depart="75.00" from="s0" to="s1"/>
    <trip id="veh_76" depart="76.00" from="h0" to="s1"/>
    <trip id="veh_77" depart="77.00" from="h0" to="h1"/>
    <trip id="veh_78" depart="78.00" from="h0" to="s1"/>
    <trip id="veh_79" depart="79.00" from="h0" to="h1"/>
    <trip id="veh_80" depart="80.00" from="h0" to="s1"/>
    <trip id="veh_81" depart="81.00" from="h0" to="s1"/>
    <trip id="veh_82" depart="82.00" from="s0" to="h1"/>
    <trip id="veh_83" depart="83.00" from="h0" to="s1"/>
    <trip id="veh_84" depart="84.00" from="h0" to="h1"/>
    <trip id="veh_85" depart="85.00" from="s0" to="s1"/>
    <trip id="veh_86" depart="86.00" from="h0" to="s1"/>
    <trip id="veh_87" depart="87.00" from="s0" to="h1"/>
    <trip id="veh_88" depart="88.00" from="h0" to="h1"/>
    <trip id="veh_89" depart="89.00" from="h0" to="h1"/>
    <trip id="veh_90" depart="90.00" from="s0" to="s1"/>
    <trip id="veh_91" depart="91.00" from="s0" to="h1"/>
    <trip id="veh_92" depart="92.00" from="h0" to="h1"/>
    <trip id="veh_93" depart="93.00" from="s0" to="h1"/>
    <trip id="veh_94" depart="94.00" from="h0" to="h1"/>
    <trip id="veh_95" depart="95.00" from="h0" to="h1"/>
    <trip id="veh_96" depart="96.00" from="h0" to="s1"/>
    <trip id="veh_97" depart="97.00" from="h0" to="s1"/>
    <trip id="veh_98" depart="98.00" from="s0" to="h1"/>
    <trip id="veh_99" depart="99.00" from="s0" to="s1"/>
    <trip id="veh_100" depart="100.00" from="s0" to="s1"/>
    <trip id="veh_101" depart="101.00" from="s0" to="h1"/>
    <trip id="veh_102" depart="102.00" from="h0" to="h1"/>
    <trip id="veh_103" depart="103.00" from="h0" to="h1"/>
    <trip id="veh_104" depart="104.00" from="h0" to="s1"/>
    <trip id="veh_105" depart="105.00" from="h0" to="s1"/>
    <trip id="veh_106" depart="106.00" from="h0" to="h1"/>
    <trip id="veh_107" depart="107.00" from="s0" to="s1"/>
    <trip id="veh_108" depart="108.00" from="s0" to="s1"/>
    <trip id="veh_109" depart="109.00" from="h0" to="h1"/>
    <trip id="veh_110" depart="110.00" from="s0" to="s1"/>
    <trip id="veh_111" depart="111.00" from="s0" to="s1"/>
    <trip id="veh_112" depart="112.00" from="h0" to="s1"/>
    <trip id="veh_113" depart="113.00" from="s0" to="s1"/>
    <trip id="veh_114" depart="114.00" from="h0" to="s1"/>
    <trip id="veh_115" depart="115.00" from="h0" to="h1"/>
    <trip id="veh_116" depart="116.00" from="s0" to="s1"/>
    <trip id="veh_117" depart="117.00" from="h0" to="h1"/>
    <trip id="veh_118" depart="118.00" from="s0" to="h1"/>
    <trip id="veh_119" depart="119.00" from="s0" to="s1"/>
    <trip id="veh_120" depart="120.00" from="h0" to="s1"/>
    <trip id="veh_121" depart="121.00" from="s0" to="s1"/>
    <trip id="veh_122" depart="122.00" from="h0" to="s1"/>
    <trip id="veh_123" depart="123.00" from="h0" to="h1"/>
    <trip id="veh_124" depart="124.00" from="s0" to="h1"/>
    <trip id="veh_125" depart="125.00" from="h0" to="s1"/>
    <trip id="veh_126" depart="126.00" from="h0" to="h1"/>
    <trip id="veh_127" depart="127.00" from="s0" to="s1"/>
    <trip id="veh_128" depart="128.00" from="h0" to="h1"/>
    <trip id="veh_129" depart="129.00" from="h0" to="s1"/>
    <trip id="veh_130" depart="130.00" from="s0" to="s1"/>
    <trip id="veh_131" depart="131.00" from="h0" to="h1"/>
    <trip id="veh_132" depart="132.00" from="s0" to="s1"/>
    <trip id="veh_133" depart="133.00" from="s0" to="s1"/>
    <trip id="veh_134" depart="134.00" from="s0" to="h1"/>
    <trip id="veh_135" depart="135.00" from="s0" to="h1"/>
    <trip id="veh_136" depart="136.00" from="s0" to="s1"/>
    <trip id="veh_137" depart="137.00" from="h0" to="h1"/>
    <trip id="veh_138" depart="138.00" from="h0" to="s1"/>
    <trip id="veh_139" depart="139.00" from="h0" to="s1"/>
    <trip id="veh_140" depart="140.00" from="s0" to="h1"/>
    <trip id="veh_141" depart="141.00" from="s0" to="h1"/>
    <trip id="veh_142" depart="142.00" from="h0" to="s1"/>
    <trip id="veh_143" depart="143.00" from="s0" to="h1"/>
    <trip id="veh_144" depart="144.00" from="h0" to="h1"/>
    <trip id="veh_145" depart="145.00" from="h0" to="s1"/>
    <trip id="veh_146" depart="146.00" from="s0" to="h1"/>
    <trip id="veh_147" depart="147.00" from="s0" to="s1"/>
    <trip id="veh_148" depart="148.00" from="h0" to="h1"/>
    <trip id="veh_149" depart="149.00" from="h0" to="s1"/>
    <trip id="veh_150" depart="150.00" from="s0" to="s1"/>
    <trip id="veh_151" depart="151.00" from="s0" to="s1"/>
    <trip id="veh_152" depart="152.00" from="h0" to="h1"/>
    <trip id="veh_153" depart="153.00" from="h0" to="s1"/>
    <trip id="veh_154" depart="154.00" from="s0" to="s1"/>
    <trip id="veh_155" depart="155.00" from="s0" to="h1"/>
    <trip id="veh_156" depart="156.00" from="h0" to="h1"/>
    <trip id="veh_157" depart="157.00" from="s0" to="s1"/>
    <trip id="veh_158" depart="158.00" from="h0" to="s1"/>
    <trip id="veh_159" depart="159.00" from="h0" to="s1"/>
    <trip id="veh_160" depart="160.00" from="s0" to="s1"/>
    <trip id="veh_161" depart="161.00" from="s0" to="s1"/>
    <trip id="veh_162" depart="162.00" from="h0" to="s1"/>
    <trip id="veh_163" depart="163.00" from="h0" to="s1"/>
    <trip id="veh_164" depart="164.00" from="s0" to="s1"/>
    <trip id="veh_165" depart="165.00" from="s0" to="h1"/>
    <trip id="veh_166" depart="166.00" from="s0" to="h1"/>
    <trip id="veh_167" depart="167.00" from="s0" to="s1"/>
    <trip id="veh_168" depart="168.00" from="h0" to="s1"/>
    <trip id="veh_169" depart="169.00" from="h0" to="h1"/>
    <trip id="veh_170" depart="170.00" from="s0" to="h1"/>
    <trip id="veh_171" depart="171.00" from="h0" to="h1"/>
    <trip id="veh_172" depart="172.00" from="h0" to="s1"/>
    <trip id="veh_173" depart="173.00" from="s0" to="h1"/>
    <trip id="veh_174" depart="174.00" from="s0" to="h1"/>
    <trip id="veh_175" depart="175.00" from="s0" to="s1"/>
    <trip id="veh_176" depart="176.00" from="s0" to="h1"/>
    <trip id="veh_177" depart="177.00" from="s0" to="h1"/>
    <trip id="veh_178" depart="178.00" from="s0" to="h1"/>
    <trip id="veh_179" depart="179.00" from="h0" to="h1"/>
    <trip id="veh_180" depart="180.00" from="s0" to="h1"/>
    <trip id="veh_181" depart="181.00" from="s0" to="s1"/>
    <trip id="veh_182" depart="182.00" from="h0" to="s1"/>
    <trip id="veh_183" depart="183.00" from="h0" to="s1"/>
    <trip id="veh_184" depart="184.00" from="h0" to="s1"/>
    <trip id="veh_185" depart="185.00" from="s0" to="s1"/>
    <trip id="veh_186" depart="186.00" from="s0" to="s1"/>
    <trip id="veh_187" depart="187.00" from="h0" to="h1"/>
    <trip id="veh_188" depart="188.00" from="s0" to="h1"/>
    <trip id="veh_189" depart="189.00" from="h0" to="s1"/>
    <trip id="veh_190" depart="190.00" from="s0" to="h1"/>
    <trip id="veh_191" depart="191.00" from="h0" to="h1"/>
    <trip id="veh_192" depart="192.00" from="h0" to="h1"/>
    <trip id="veh_193" depart="193.00" from="h0" to="h1"/>
    <trip id="veh_194" depart="194.00" from="s0" to="s1"/>
    <trip id="veh_195" depart="195.00" from="s0" to="s1"/>
    <trip id="veh_196" depart="196.00" from="h0" to="s1"/>
    <trip id="veh_197" depart="197.00" from="h0" to="h1"/>
    <trip id="veh_198" depart="198.00" from="h0" to="s1"/>
    <trip id="veh_199" depart="199.00" from="s0" to="h1"/>
    <trip id="veh_200" depart="200.00" from="h0" to="h1"/>
    <trip id="veh_201" depart="201.00" from="h0" to="s1"/>
    <trip id="veh_202" depart="202.00" from="s0" to="h1"/>
    <trip id="veh_203" depart="203.00" from="h0" to="s1"/>
    <trip id="veh_204" depart="204.00" from="s0" to="h1"/>
    <trip id="veh_205" depart="205.00" from="s0" to="s1"/>
    <trip id="veh_206" depart="206.00" from="s0" to="h1"/>
    <trip id="veh_207" depart="207.00" from="h0" to="h1"/>
    <trip id="veh_208" depart="208.00" from="h0" to="h1"/>
    <trip id="veh_209" depart="209.00" from="s0" to="h1"/>
    <trip id="veh_210" depart="210.00" from="h0" to="s1"/>
    <trip id="veh_211" depart="211.00" from="h0" to="s1"/>
    <trip id="veh_212" depart="212.00" from="h0" to="h1"/>
    <trip id="veh_213" depart="213.00" from="s0" to="h1"/>
    <trip id="veh_214" depart="214.00" from="s0" to="s1"/>
    <trip id="veh_215" depart="215.00" from="h0" to="h1"/>
    <trip id="veh_216" depart="216.00" from="h0" to="s1"/>
    <trip id="veh_217" depart="217.00" from="s0" to="h1"/>
    <trip id="veh_218" depart="218.00" from="h0" to="s1"/>
    <trip id="veh_219" depart="219.00" from="h0" to="s1"/>
    <trip id="veh_220" depart="220.00" from="s0" to="s1"/>
    <trip id="veh_221" depart="221.00" from="s0" to="s1"/>
    <trip id="veh_222" depart="222.00" from="s0" to="s1"/>
    <trip id="veh_223" depart="223.00" from="s0" to="s1"/>
    <trip id="veh_224" depart="224.00" from="s0" to="s1"/>
    <trip id="veh_225" depart="225.00" from="s0" to="s1"/>
    <trip id="veh_226" depart="226.00" from="h0" to="h1"/>
    <trip id="veh_227" depart="227.00" from="h0" to="s1"/>
    <trip id="veh_228" depart="228.00" from="s0" to="s1"/>
    <trip id="veh_229" depart="229.00" from="s0" to="h1"/>
    <trip id="veh_230" depart="230.00" from="h0" to="h1"/>
    <trip id="veh_231" depart="231.00" from="h0" to="h1"/>
    <trip id="veh_232" depart="232.00" from="s0" to="h1"/>
    <trip id="veh_233" depart="233.00" from="h0" to="s1"/>
    <trip id="veh_234" depart="234.00" from="s0" to="h1"/>
    <trip id="veh_235" depart="235.00" from="h0" to="s1"/>
    <trip id="veh_236" depart="236.00" from="h0" to="h1"/>
    <trip id="veh_237" depart="237.00" from="h0" to="s1"/>
    <trip id="veh_238" depart="238.00" from="s0" to="s1"/>
    <trip id="veh_239" depart="239.00" from="s0" to="s1"/>
    <trip id="veh_240" depart="240.00" from="h0" to="h1"/>
    <trip id="veh_241" depart="241.00" from="h0" to="s1"/>
    <trip id="veh_242" depart="242.00" from="s0" to="s1"/>
    <trip id="veh_243" depart="243.00" from="h0" to="s1"/>
    <trip id="veh_244" depart="244.00" from="s0" to="s1"/>
    <trip id="veh_245" depart="245.00" from="h0" to="h1"/>
    <trip id="veh_246" depart="246.00" from="h0" to="h1"/>
    <trip id="veh_247" depart="247.00" from="h0" to="s1"/>
    <trip id="veh_248" depart="248.00" from="h0" to="h1"/>
    <trip id="veh_249" depart="249.00" from="h0" to="h1"/>
    <trip id="veh_250" depart="250.00" from="s0" to="h1"/>
    <trip id="veh_251" depart="251.00" from="h0" to="s1"/>
    <trip id="veh_252" depart="252.00" from="h0" to="s1"/>
    <trip id="veh_253" depart="253.00" from="h0" to="h1"/>
    <trip id="veh_254" depart="254.00" from="h0" to="h1"/>
    <trip id="veh_255" depart="255.00" from="h0" to="h1"/>
    <trip id="veh_256" depart="256.00" from="s0" to="h1"/>
    <trip id="veh_257" depart="257.00" from="s0" to="s1"/>
    <trip id="veh_258" depart="258.00" from="h0" to="h1"/>
    <trip id="veh_259" depart="259.00" from="h0" to="s1"/>
    <trip id="veh_260" depart="260.00" from="s0" to="h1"/>
    <trip id="veh_261" depart="261.00" from="s0" to="s1"/>
    <trip id="veh_262" depart="262.00" from="s0" to="s1"/>
    <trip id="veh_263" depart="263.00" from="s0" to="h1"/>
    <trip id="veh_264" depart="264.00" from="h0" to="h1"/>
    <trip id="veh_265" depart="265.00" from="h0" to="s1"/>
    <trip id="veh_266" depart="266.00" from="s0" to="h1"/>
    <trip id="veh_267" depart="267.00" from="s0" to="s1"/>
    <trip id="veh_268" depart="268.00" from="h0" to="s1"/>
    <trip id="veh_269" depart="269.00" from="s0" to="h1"/>
    <trip id="veh_270" depart="270.00" from="s0" to="s1"/>
    <trip id="veh_271" depart="271.00" from="h0" to="h1"/>
    <trip id="veh_272" depart="272.00" from="h0" to="s1"/>
    <trip id="veh_273" depart="273.00" from="s0" to="h1"/>
    <trip id="veh_274" depart="274.00" from="s0" to="h1"/>
    <trip id="veh_275" depart="275.00" from="s0" to="s1"/>
    <trip id="veh_276" depart="276.00" from="h0" to="s1"/>
    <trip id="veh_277" depart="277.00" from="s0" to="s1"/>
    <trip id="veh_278" depart="278.00" from="h0" to="s1"/>
    <trip id="veh_279" depart="279.00" from="s0" to="h1"/>
    <trip id="veh_280" depart="280.00" from="h0" to="h1"/>
    <trip id="veh_281" depart="281.00" from="s0" to="h1"/>
    <trip id="veh_282" depart="282.00" from="s0" to="s1"/>
    <trip id="veh_283" depart="283.00" from="h0" to="s1"/>
    <trip id="veh_284" depart="284.00" from="s0" to="s1"/>
    <trip id="veh_285" depart="285.00" from="s0" to="h1"/>
    <trip id="veh_286" depart="286.00" from="s0" to="s1"/>
    <trip id="veh_287" depart="287.00" from="h0" to="s1"/>
    <trip id="veh_288" depart="288.00" from="s0" to="h1"/>
    <trip id="veh_289" depart="289.00" from="h0" to="s1"/>
    <trip id="veh_290" depart="290.00" from="h0" to="s1"/>
    <trip id="veh_291" depart="291.00" from="s0" to="h1"/>
    <trip id="veh_292" depart="292.00" from="s0" to="h1"/>
    <trip id="veh_293" depart="293.00" from="h0" to="s1"/>
    <trip id="veh_294" depart="294.00" from="h0" to="h1"/>
    <trip id="veh_295" depart="295.00" from="s0" to="h1"/>
    <trip id="veh_296" depart="296.00" from="h0" to="s1"/>
    <trip id="veh_297" depart="297.00" from="h0" to="s1"/>
    <trip id="veh_298" depart="298.00" from="s0" to="h1"/>
    <trip id="veh_299" depart="299.00" from="h0" to="s1"/>
    <trip id="veh_300" depart="300.00" from="h0" to="s1"/>
    <trip id="veh_301" depart="301.00" from="h0" to="s1"/>
    <trip id="veh_302" depart="302.00" from="s0" to="s1"/>
    <trip id="veh_303" depart="303.00" from="h0" to="s1"/>
    <trip id="veh_304" depart="304.00" from="h0" to="h1"/>
    <trip id="veh_305" depart="305.00" from="s0" to="h1"/>
    <trip id="veh_306" depart="306.00" from="s0" to="h1"/>
    <trip id="veh_307" depart="307.00" from="s0" to="h1"/>
    <trip id="veh_308" depart="308.00" from="s0" to="h1"/>
    <trip id="veh_309" depart="309.00" from="s0" to="h1"/>
    <trip id="veh_310" depart="310.00" from="h0" to="h1"/>
    <trip id="veh_311" depart="311.00" from="h0" to="h1"/>
    <trip id="veh_312" depart="312.00" from="s0" to="s1"/>
    <trip id="veh_313" depart="313.00" from="h0" to="h1"/>
    <trip id="veh_314" depart="314.00" from="h0" to="s1"/>
    <trip id="veh_315" depart="315.00" from="s0" to="s1"/>
    <trip id="veh_316" depart="316.00" from="h0" to="h1"/>
    <trip id="veh_317" depart="317.00" from="h0" to="h1"/>
    <trip id="veh_318" depart="318.00" from="h0" to="h1"/>
    <trip id="veh_319" depart="319.00" from="s0" to="h1"/>
    <trip id="veh_320" depart="320.00" from="s0" to="s1"/>
    <trip id="veh_321" depart="321.00" from="s0" to="h1"/>
    <trip id="veh_322" depart="322.00" from="s0" to="h1"/>
    <trip id="veh_323" depart="323.00" from="s0" to="s1"/>
    <trip id="veh_324" depart="324.00" from="h0" to="h1"/>
    <trip id="veh_325" depart="325.00" from="h0" to="h1"/>
    <trip id="veh_326" depart="326.00" from="s0" to="h1"/>
    <trip id="veh_327" depart="327.00" from="s0" to="h1"/>
    <trip id="veh_328" depart="328.00" from="h0" to="s1"/>
    <trip id="veh_329" depart="329.00" from="h0" to="h1"/>
    <trip id="veh_330" depart="330.00" from="s0" to="h1"/>
    <trip id="veh_331" depart="331.00" from="s0" to="h1"/>
    <trip id="veh_332" depart="332.00" from="s0" to="s1"/>
    <trip id="veh_333" depart="333.00" from="s0" to="h1"/>
    <trip id="veh_334" depart="334.00" from="s0" to="h1"/>
    <trip id="veh_335" depart="335.00" from="h0" to="s1"/>
    <trip id="veh_336" depart="336.00" from="s0" to="h1"/>
    <trip id="veh_337" depart="337.00" from="s0" to="s1"/>
    <trip id="veh_338" depart="338.00" from="s0" to="s1"/>
    <trip id="veh_339" depart="339.00" from="h0" to="h1"/>
    <trip id="veh_340" depart="340.00" from="s0" to="h1"/>
    <trip id="veh_341" depart="341.00" from="h0" to="h1"/>
    <trip id="veh_342" depart="342.00" from="h0" to="h1"/>
    <trip id="veh_343" depart="343.00" from="s0" to="h1"/>
    <trip id="veh_344" depart="344.00" from="h0" to="s1"/>
    <trip id="veh_345" depart="345.00" from="s0" to="h1"/>
    <trip id="veh_346" depart="346.00" from="s0" to="s1"/>
    <trip id="veh_347" depart="347.00" from="s0" to="s1"/>
    <trip id="veh_348" depart="348.00" from="s0" to="s1"/>
    <trip id="veh_349" depart="349.00" from="h0" to="s1"/>
    <trip id="veh_350" depart="350.00" from="s0" to="s1"/>
    <trip id="veh_351" depart="351.00" from="s0" to="h1"/>
    <trip id="veh_352" depart="352.00" from="h0" to="h1"/>
    <trip id="veh_353" depart="353.00" from="s0" to="s1"/>
    <trip id="veh_354" depart="354.00" from="h0" to="h1"/>
    <trip id="veh_355" depart="355.00" from="s0" to="s1"/>
    <trip id="veh_356" depart="356.00" from="s0" to="s1"/>
    <trip id="veh_357" depart="357.00" from="h0" to="h1"/>
    <trip id="veh_358" depart="358.00" from="h0" to="h1"/>
    <trip id="veh_359" depart="359.00" from="h0" to="h1"/>
    <trip id="veh_360" depart="360.00" from="h0" to="s1"/>
    <trip id="veh_361" depart="361.00" from="s0" to="s1"/>
    <trip id="veh_362" depart="362.00" from="s0" to="s1"/>
    <trip id="veh_363" depart="363.00" from="s0" to="h1"/>
    <trip id="veh_364" depart="364.00" from="h0" to="s1"/>
    <trip id="veh_365" depart="365.00" from="h0" to="s1"/>
    <trip id="veh_366" depart="366.00" from="s0" to="h1"/>
    <trip id="veh_367" depart="367.00" from="s0" to="s1"/>
    <trip id="veh_368" depart="368.00" from="h0" to="h1"/>
    <trip id="veh_369" depart="369.00" from="h0" to="h1"/>
    <trip id="veh_370" depart="370.00" from="s0" to="s1"/>
    <trip id="veh_371" depart="371.00" from="h0" to="s1"/>
    <trip id="veh_372" depart="372.00" from="h0" to="s1"/>
    <trip id="veh_373" depart="373.00" from="s0" to="s1"/>
    <trip id="veh_374" depart="374.00" from="h0" to="h1"/>
    <trip id="veh_375" depart="375.00" from="h0" to="s1"/>
    <trip id="veh_376" depart="376.00" from="h0" to="s1"/>
    <trip id="veh_377" depart="377.00" from="s0" to="s1"/>
    <trip id="veh_378" depart="378.00" from="s0" to="h1"/>
    <trip id="veh_379" depart="379.00" from="h0" to="h1"/>
    <trip id="veh_380" depart="380.00" from="s0" to="s1"/>
    <trip id="veh_381" depart="381.00" from="s0" to="h1"/>
    <trip id="veh_382" depart="382.00" from="s0" to="s1"/>
    <trip id="veh_383" depart="383.00" from="h0" to="s1"/>
    <trip id="veh_384" depart="384.00" from="h0" to="s1"/>
    <trip id="veh_385" depart="385.00" from="s0" to="h1"/>
    <trip id="veh_386" depart="386.00" from="h0" to="s1"/>
    <trip id="veh_387" depart="387.00" from="s0" to="h1"/>
    <trip id="veh_388" depart="388.00" from="s0" to="s1"/>
    <trip id="veh_389" depart="389.00" from="h0" to="h1"/>
    <trip id="veh_390" depart="390.00" from="s0" to="h1"/>
    <trip id="veh_391" depart="391.00" from="s0" to="s1"/>
    <trip id="veh_392" depart="392.00" from="h0" to="s1"/>
    <trip id="veh_393" depart="393.00" from="s0" to="h1"/>
    <trip id="veh_394" depart="394.00" from="s0" to="h1"/>
    <trip id="veh_395" depart="395.00" from="s0" to="s1"/>
    <trip id="veh_396" depart="396.00" from="s0" to="s1"/>
    <trip id="veh_397" depart="397.00" from="h0" to="s1"/>
    <trip id="veh_398" depart="398.00" from="h0" to="s1"/>
    <trip id="veh_399" depart="399.00" from="s0" to="s1"/>
    <trip id="veh_400" depart="400.00" from="h0" to="h1"/>
    <trip id="veh_401" depart="401.00" from="s0" to="s1"/>
    <trip id="veh_402" depart="402.00" from="h0" to="h1"/>
    <trip id="veh_403" depart="403.00" from="s0" to="h1"/>
    <trip id="veh_404" depart="404.00" from="s0" to="s1"/>
    <trip id="veh_405" depart="405.00" from="h0" to="h1"/>
    <trip id="veh_406" depart="406.00" from="h0" to="s1"/>
    <trip id="veh_407" depart="407.00" from="s0" to="h1"/>
    <trip id="veh_408" depart="408.00" from="s0" to="h1"/>
    <trip id="veh_409" depart="409.00" from="s0" to="s1"/>
    <trip id="veh_410" depart="410.00" from="s0" to="h1"/>
    <trip id="veh_411" depart="411.00" from="s0" to="s1"/>
    <trip id="veh_412" depart="412.00" from="s0" to="h1"/>
    <trip id="veh_413" depart="413.00" from="h0" to="s1"/>
    <trip id="veh_414" depart="414.00" from="s0" to="s1"/>
    <trip id="veh_415" depart="415.00" from="s0" to="h1"/>
    <trip id="veh_416" depart="416.00" from="s0" to="h1"/>
    <trip id="veh_417" depart="417.00" from="s0" to="h1"/>
    <trip id="veh_418" depart="418.00" from="s0" to="h1"/>
    <trip id="veh_419" depart="419.00" from="h0" to="s1"/>
    <trip id="veh_420" depart="420.00" from="h0" to="s1"/>
    <trip id="veh_421" depart="421.00" from="s0" to="s1"/>
    <trip id="veh_422" depart="422.00" from="s0" to="s1"/>
    <trip id="veh_423" depart="423.00" from="h0" to="h1"/>
    <trip id="veh_424" depart="424.00" from="s0" to="s1"/>
    <trip id="veh_425" depart="425.00" from="s0" to="h1"/>
    <trip id="veh_426" depart="426.00" from="h0" to="s1"/>
    <trip id="veh_427" depart="427.00" from="s0" to="s1"/>
    <trip id="veh_428" depart="428.00" from="s0" to="h1"/>
    <trip id="veh_429" depart="429.00" from="h0" to="s1"/>
    <trip id="veh_430" depart="430.00" from="s0" to="h1"/>
    <trip id="veh_431" depart="431.00" from="s0" to="s1"/>
    <trip id="veh_432" depart="432.00" from="h0" to="s1"/>
    <trip id="veh_433" depart="433.00" from="h0" to="h1"/>
    <trip id="veh_434" depart="434.00" from="h0" to="s1"/>
    <trip id="veh_435" depart="435.00" from="s0" to="s1"/>
    <trip id="veh_436" depart="436.00" from="h0" to="h1"/>
    <trip id="veh_437" depart="437.00" from="s0" to="s1"/>
    <trip id="veh_438" depart="438.00" from="h0" to="s1"/>
    <trip id="veh_439" depart="439.00" from="h0" to="h1"/>
    <trip id="veh_440" depart="440.00" from="h0" to="h1"/>
    <trip id="veh_441" depart="441.00" from="h0" to="s1"/>
    <trip id="veh_442" depart="442.00" from="s0" to="s1"/>
    <trip id="veh_443" depart="443.00" from="h0" to="h1"/>
    <trip id="veh_444" depart="444.00" from="h0" to="s1"/>
    <trip id="veh_445" depart="445.00" from="s0" to="h1"/>
    <trip id="veh_446" depart="446.00" from="h0" to="s1"/>
    <trip id="veh_447" depart="447.00" from="h0" to="h1"/>
    <trip id="veh_448" depart="448.00" from="h0" to="h1"/>
    <trip id="veh_449" depart="449.00" from="s0" to="s1"/>
    <trip id="veh_450" depart="450.00" from="s0" to="h1"/>
    <trip id="veh_451" depart="451.00" from="s0" to="s1"/>
    <trip id="veh_452" depart="452.00" from="h0" to="s1"/>
    <trip id="veh_453" depart="453.00" from="s0" to="s1"/>
    <trip id="veh_454" depart="454.00" from="h0" to="s1"/>
    <trip id="veh_455" depart="455.00" from="h0" to="s1"/>
    <trip id="veh_456" depart="456.00" from="h0" to="s1"/>
    <trip id="veh_457" depart="457.00" from="s0" to="h1"/>
    <trip id="veh_458" depart="458.00" from="s0" to="s1"/>
    <trip id="veh_459" depart="459.00" from="s0" to="s1"/>
    <trip id="veh_460" depart="460.00" from="s0" to="s1"/>
    <trip id="veh_461" depart="461.00" from="s0" to="s1"/>
    <trip id="veh_462" depart="462.00" from="s0" to="h1"/>
    <trip id="veh_463" depart="463.00" from="h0" to="s1"/>
    <trip id="veh_464" depart="464.00" from="s0" to="h1"/>
    <trip id="veh_465" depart="465.00" from="h0" to="s1"/>
    <trip id="veh_466" depart="466.00" from="h0" to="h1"/>
    <trip id="veh_467" depart="467.00" from="s0" to="s1"/>
    <trip id="veh_468" depart="468.00" from="s0" to="s1"/>
    <trip id="veh_469" depart="469.00" from="s0" to="h1"/>
    <trip id="veh_470" depart="470.00" from="s0" to="h1"/>
    <trip id="veh_471" depart="471.00" from="s0" to="s1"/>
    <trip id="veh_472" depart="472.00" from="h0" to="h1"/>
    <trip id="veh_473" depart="473.00" from="s0" to="h1"/>
    <trip id="veh_474" depart="474.00" from="s0" to="s1"/>
    <trip id="veh_475" depart="475.00" from="s0" to="s1"/>
    <trip id="veh_476" depart="476.00" from="s0" to="s1"/>
    <trip id="veh_477" depart="477.00" from="h0" to="s1"/>
    <trip id="veh_478" depart="478.00" from="h0" to="s1"/>
    <trip id="veh_479" depart="479.00" from="h0" to="s1"/>
    <trip id="veh_480" depart="480.00" from="s0" to="s1"/>
    <trip id="veh_481" depart="481.00" from="s0" to="s1"/>
    <trip id="veh_482" depart="482.00" from="h0" to="h1"/>
    <trip id="veh_483" depart="483.00" from="h0" to="s1"/>
    <trip id="veh_484" depart="484.00" from="s0" to="s1"/>
    <trip id="veh_485" depart="485.00" from="h0" to="h1"/>
    <trip id="veh_486" depart="486.00" from="s0" to="s1"/>
    <trip id="veh_487" depart="487.00" from="h0" to="h1"/>
    <trip id="veh_488" depart="488.00" from="h0" to="s1"/>
    <trip id="veh_489" depart="489.00" from="h0" to="h1"/>
    <trip id="veh_490" depart="490.00" from="h0" to="s1"/>
    <trip id="veh_491" depart="491.00" from="h0" to="h1"/>
    <trip id="veh_492" depart="492.00" from="s0" to="s1"/>
    <trip id="veh_493" depart="493.00" from="s0" to="h1"/>
    <trip id="veh_494" depart="494.00" from="s0" to="h1"/>
    <trip id="veh_495" depart="495.00" from="h0" to="h1"/>
    <trip id="veh_496" depart="496.00" from="h0" to="h1"/>
    <trip id="veh_497" depart="497.00" from="s0" to="h1"/>
    <trip id="veh_498" depart="498.00" from="h0" to="h1"/>
    <trip id="veh_499" depart="499.00" from="s0" to="s1"/>
    <trip id="veh_500" depart="500.00" from="h0" to="s1"/>
    <trip id="veh_501" depart="501.00" from="s0" to="s1"/>
    <trip id="veh_502" depart="502.00" from="h0" to="h1"/>
    <trip id="veh_503" depart="503.00" from="h0" to="h1"/>